CM 
CE
SY F=5785	'Frequency (MHz)
SY VF = 1.0
SY WL = VF * (299.792458 / F)	'Computed wavelength
SY WR = 0.000584/2
SY BR = 0.006 / 2
SY LL = 0.193
SY LS = 0.193
SY RS = 0.375 * WL
GW	1	3	BR	0	RS	0	BR	RS	WR
GW	2	3	-BR	0	RS	0	-BR	RS	WR
GW	11	5	BR	0	RS	BR+(LL*WL)	0	RS	WR
GW	12	5	0	BR	RS	0	BR+(LS*WL)	RS	WR
GW	13	5	-BR	0	RS	-BR-(LL*WL)	0	RS	WR
GW	14	5	0	-BR	RS	0	-BR-(LS*WL)	RS	WR
GE	1
GN	1
EK
EX	0	1	50%	0	1	0	0
EX	0	2	50%	0	-1	0	0
FR	0	0	0	0	F	0
EN
